*Heading
** Job name: Job-1 Model name: Model-1
** Generated by: Abaqus/CAE 6.12-3
*Preprint, echo=NO, model=NO, history=NO, contact=NO
**
** PARTS
**
*Part, name=Union-part
*Node
      1,   19.8761559,         4.75
      2,   19.8761559,         4.25
      3,   19.8761559,         3.75
      4,   19.8761559,         3.25
      5,   19.8761559,         2.75
      6,   19.8761559,         2.25
      7,   19.8761559,         1.75
      8,   19.8761559,         1.25
      9,   19.8761559,         0.75
     10,   19.8761559,         0.25
     11,   19.3761559,         4.75
     12,   19.3761559,         4.25
     13,   19.3761559,         3.75
     14,   19.3761559,         3.25
     15,   19.3761559,         2.75
     16,   19.3761559,         2.25
     17,   19.3761559,         1.75
     18,   19.3761559,         1.25
     19,   19.3761559,         0.75
     20,   19.3761559,         0.25
** ... 11556 like lines cut
*Element, type=CPE3
 1, 3451,  410,  409
 2, 3451,  411,  410
 3, 3451,    1,  411
 4, 3453,  406, 3452
 5, 3453, 3452, 3451
 6, 3452,    1, 3451
 7, 3453,  409,  408
 8, 3453, 3451,  409
 9, 3452,  406,  405
10, 3452,  405,    1
11, 3453,  408,  407
12, 3453,  407,  406
13, 3454,  417,  416
14, 3454,  418,  417
15, 3454,    2,  418
16, 3456,  413, 3455
17, 3456, 3455, 3454
18, 3455,    2, 3454
19, 3456,  416,  415
20, 3456, 3454,  416
** ... 22880 like lines cut
*Nset, nset=Set-1
     1,     2,     3,     4,     5,     6,     7,     8,     9,    10,    11,    12,    13,    14,    15,    16
    17,    18,    19,    20,    21,    22,    23,    24,    25,    26,    27,    28,    29,    30,    31,    32
    33,    34,    35,    36,    37,    38,    39,    40,    41,    42,    43,    44,    45,    46,    47,    48
    49,    50,    51,    52,    53,    54,    55,    56,    57,    58,    59,    60,    61,    62,    63,    64
    65,    66,    67,    68,    69,    70,    71,    72,    73,    74,    75,    76,    77,    78,    79,    80
    81,    82,    83,    84,    85,    86,    87,    88,    89,    90,    91,    92,    93,    94,    95,    96
    97,    98,    99,   100,   101,   102,   103,   104,   105,   106,   107,   108,   109,   110,   111,   112
   113,   114,   115,   116,   117,   118,   119,   120,   121,   122,   123,   124,   125,   126,   127,   128
   129,   130,   131,   132,   133,   134,   135,   136,   137,   138,   139,   140,   141,   142,   143,   144
   145,   146,   147,   148,   149,   150,   151,   152,   153,   154,   155,   156,   157,   158,   159,   160
   161,   162,   163,   164,   165,   166,   167,   168,   169,   170,   171,   172,   173,   174,   175,   176
   177,   178,   179,   180,   181,   182,   183,   184,   185,   186,   187,   188,   189,   190,   191,   192
   193,   194,   195,   196,   197,   198,   199,   200,   201,   202,   203,   204,   205,   206,   207,   208
   209,   210,   211,   212,   213,   214,   215,   216,   217,   218,   219,   220,   221,   222,   223,   224
   225,   226,   227,   228,   229,   230,   231,   232,   233,   234,   235,   236,   237,   238,   239,   240
   241,   242,   243,   244,   245,   246,   247,   248,   249,   250,   251,   252,   253,   254,   255,   256
   257,   258,   259,   260,   261,   262,   263,   264,   265,   266,   267,   268,   269,   270,   271,   272
   273,   274,   275,   276,   277,   278,   279,   280,   281,   282,   283,   284,   285,   286,   287,   288
   289,   290,   291,   292,   293,   294,   295,   296,   297,   298,   299,   300,   301,   302,   303,   304
   305,   306,   307,   308,   309,   310,   311,   312,   313,   314,   315,   316,   317,   318,   319,   320
** ... 629 like lines cut
*Elset, elset=Set-1, generate
  4801,  22900,      1
*Nset, nset=Set-2
    1,    2,    3,    4,    5,    6,    7,    8,    9,   10,   11,   12,   13,   14,   15,   16
   17,   18,   19,   20,   21,   22,   23,   24,   25,   26,   27,   28,   29,   30,   31,   32
   33,   34,   35,   36,   37,   38,   39,   40,   41,   42,   43,   44,   45,   46,   47,   48
   49,   50,   51,   52,   53,   54,   55,   56,   57,   58,   59,   60,   61,   62,   63,   64
   65,   66,   67,   68,   69,   70,   71,   72,   73,   74,   75,   76,   77,   78,   79,   80
   81,   82,   83,   84,   85,   86,   87,   88,   89,   90,   91,   92,   93,   94,   95,   96
   97,   98,   99,  100,  101,  102,  103,  104,  105,  106,  107,  108,  109,  110,  111,  112
  113,  114,  115,  116,  117,  118,  119,  120,  121,  122,  123,  124,  125,  126,  127,  128
  129,  130,  131,  132,  133,  134,  135,  136,  137,  138,  139,  140,  141,  142,  143,  144
  145,  146,  147,  148,  149,  150,  151,  152,  153,  154,  155,  156,  157,  158,  159,  160
  161,  162,  163,  164,  165,  166,  167,  168,  169,  170,  171,  172,  173,  174,  175,  176
  177,  178,  179,  180,  181,  182,  183,  184,  185,  186,  187,  188,  189,  190,  191,  192
  193,  194,  195,  196,  197,  198,  199,  200,  201,  202,  203,  204,  205,  206,  207,  208
  209,  210,  211,  212,  213,  214,  215,  216,  217,  218,  219,  220,  221,  222,  223,  224
  225,  226,  227,  228,  229,  230,  231,  232,  233,  234,  235,  236,  237,  238,  239,  240
  241,  242,  243,  244,  245,  246,  247,  248,  249,  250,  251,  252,  253,  254,  255,  256
  257,  258,  259,  260,  261,  262,  263,  264,  265,  266,  267,  268,  269,  270,  271,  272
  273,  274,  275,  276,  277,  278,  279,  280,  281,  282,  283,  284,  285,  286,  287,  288
  289,  290,  291,  292,  293,  294,  295,  296,  297,  298,  299,  300,  301,  302,  303,  304
  305,  306,  307,  308,  309,  310,  311,  312,  313,  314,  315,  316,  317,  318,  319,  320
** ... 255 like lines cut
*Elset, elset=Set-2, generate
    1,  4800,     1
** Section: Inclusion-section
*Solid Section, elset=Set-2, material=Inclusion-material
,
** Section: Beam-section
*Solid Section, elset=Set-1, material=Beam-material
,
*End Part
**  
**
** ASSEMBLY
**
*Assembly, name=Assembly
**  
*Instance, name=Union-part-1, part=Union-part
*End Instance
**  
*Nset, nset=Set-1, instance=Union-part-1
  401,  402, 3205, 3206, 3207, 3208, 3209, 3210, 3211, 3212, 3213, 3214, 3215, 3216, 3217, 3218
 3219, 3220, 3221, 3222, 3223, 3224, 3225, 3226, 3227, 3228
*Elset, elset=Set-1, instance=Union-part-1
 10384, 10408, 10417, 10419, 10423, 10437, 10441, 10452, 10454, 10469, 10481, 10486, 11143, 11144, 11145, 11146
 11147, 11149, 11150, 14457, 14482, 14494, 16569, 19588, 22887
*Elset, elset=_Surf-1_S2, internal, instance=Union-part-1
  4801,  5012,  5014,  5027, 11186, 11192, 11193, 14508, 16568, 19586, 22883
*Elset, elset=_Surf-1_S3, internal, instance=Union-part-1
  4832,  4838,  4876,  4905,  5025,  5035,  5080, 12976
*Elset, elset=_Surf-1_S1, internal, instance=Union-part-1
 10499, 10503, 11187, 11188, 11189, 11190
*Surface, type=ELEMENT, name=Surf-1
_Surf-1_S2, S2
_Surf-1_S3, S3
_Surf-1_S1, S1
*End Assembly
** 
** MATERIALS
** 
*Material, name=Beam-material
*Hyperelastic, neo hooke
 17.857, 0.012
*Material, name=Inclusion-material
*Hyperelastic, neo hooke
 192.31, 0.0024
** ----------------------------------------------------------------
** 
** STEP: Step-1
** 
*Step, name=Step-1, nlgeom=YES
*Static
1., 1., 1e-05, 1.
** 
** BOUNDARY CONDITIONS
** 
** Name: Fixed-Left Type: Displacement/Rotation
*Boundary
Set-1, 1, 1
Set-1, 2, 2
Set-1, 6, 6
** 
** LOADS
** 
** Name: Load-right   Type: Surface traction
*Dsload
Surf-1, TRSHR, 0.5, 0., -1., 0.
** 
** OUTPUT REQUESTS
** 
*Restart, write, frequency=0
** 
** FIELD OUTPUT: F-Output-1
** 
*Output, field, variable=PRESELECT
** 
** HISTORY OUTPUT: H-Output-1
** 
*Output, history, variable=PRESELECT
*End Step
