*Heading
** Job name: Job-1 Model name: Model-1
** Generated by: Abaqus/CAE 6.12-3
*Preprint, echo=NO, model=NO, history=NO, contact=NO
**
** PARTS
**
*Part, name=Beam-part
*End Part
**  
**
** ASSEMBLY
**
*Assembly, name=Assembly
**  
*Instance, name=Beam-part-1, part=Beam-part
*Node
      1,           0.,           5.
      2,           0.,           4.
      3,           0.,           3.
      4,           0.,           2.
      5,           0.,           1.
      6,           0.,           0.
      7,           1.,           5.
      8,           1.,           4.
      9,           1.,           3.
     10,           1.,           2.
     11,           1.,           1.
     12,           1.,           0.
     13,           2.,           5.
     14,           2.,           4.
     15,           2.,           3.
     16,           2.,           2.
     17,           2.,           1.
     18,           2.,           0.
     19,           3.,           5.
     20,           3.,           4.
** ... 106 like lines cut
*Element, type=CPE4
  1,   1,   2,   8,   7
  2,   2,   3,   9,   8
  3,   3,   4,  10,   9
  4,   4,   5,  11,  10
  5,   5,   6,  12,  11
  6,   7,   8,  14,  13
  7,   8,   9,  15,  14
  8,   9,  10,  16,  15
  9,  10,  11,  17,  16
 10,  11,  12,  18,  17
 11,  13,  14,  20,  19
 12,  14,  15,  21,  20
 13,  15,  16,  22,  21
 14,  16,  17,  23,  22
 15,  17,  18,  24,  23
 16,  19,  20,  26,  25
 17,  20,  21,  27,  26
 18,  21,  22,  28,  27
 19,  22,  23,  29,  28
 20,  23,  24,  30,  29
** ... 80 like lines cut
*Nset, nset=Set-1, generate
   1,  126,    1
*Elset, elset=Set-1, generate
   1,  100,    1
** Section: Beam-section
*Solid Section, elset=Set-1, material=Beam-material
,
*End Instance
**  
*Nset, nset=Set-3, instance=Beam-part-1, generate
 1,  6,  1
*Elset, elset=Set-3, instance=Beam-part-1, generate
 1,  5,  1
*Elset, elset=_Surf-1_S3, internal, instance=Beam-part-1, generate
  96,  100,    1
*Surface, type=ELEMENT, name=Surf-1
_Surf-1_S3, S3
*End Assembly
** 
** MATERIALS
** 
*Material, name=Beam-material
*Hyperelastic, neo hooke
 192.31, 0.0024
** 
** BOUNDARY CONDITIONS
** 
** Name: BC-1 Type: Displacement/Rotation
*Boundary
Set-3, 1, 1
Set-3, 2, 2
Set-3, 6, 6
** ----------------------------------------------------------------
** 
** STEP: Step-1
** 
*Step, name=Step-1, nlgeom=YES
*Static
1., 1., 1e-05, 1.
** 
** LOADS
** 
** Name: Load-1   Type: Surface traction
*Dsload
Surf-1, TRSHR, 0.5, 0., -1., 0.
** 
** OUTPUT REQUESTS
** 
*Restart, write, frequency=0
** 
** FIELD OUTPUT: F-Output-1
** 
*Output, field, variable=PRESELECT
** 
** HISTORY OUTPUT: H-Output-1
** 
*Output, history, variable=PRESELECT
*End Step
