*Heading
** Job name: Job-1 Model name: Model-1
** Generated by: Abaqus/CAE 6.12-3
*Preprint, echo=NO, model=NO, history=NO, contact=NO
**
** PARTS
**
*Part, name=Union-part
*End Part
**  
**
** ASSEMBLY
**
*Assembly, name=Assembly
**  
*Instance, name=Union-part-1, part=Union-part
*Node
      1,   47.7523117,   59.2000008
      2,   47.7523117,   58.2000008
      3,   47.7523117,   57.2000008
      4,   47.7523117,   56.2000008
      5,   47.7523117,   55.2000008
      6,   47.7523117,   54.2000008
      7,   47.7523117,   53.2000008
      8,   47.7523117,   52.2000008
      9,   47.7523117,   51.2000008
     10,   47.7523117,   50.2000008
     11,   47.7523117,   49.2000008
     12,   47.7523117,   48.2000008
     13,   47.7523117,   47.2000008
     14,   47.7523117,   46.2000008
     15,   47.7523117,   45.2000008
     16,   47.7523117,   44.2000008
     17,   46.7523117,   58.2000008
     18,   46.7523117,   57.2000008
     19,   46.7523117,   56.2000008
     20,   46.7523117,   55.2000008
** ... 41116 like lines cut
*Element, type=CPS3
 1, 11496,  1403,  1402
 2, 11496,     1,  1404
 3, 11498,  1399, 11497
 4, 11498, 11497, 11496
 5, 11497,     1, 11496
 6, 11496,  1404,  1403
 7, 11498,  1402,  1401
 8, 11498, 11496,  1402
 9, 11497,  1399,  1398
10, 11497,  1398,     1
11, 11498,  1401,  1400
12, 11498,  1400,  1399
13, 11499,  1410,  1409
14, 11499,     2,  1411
15, 11501,  1406, 11500
16, 11501, 11500, 11499
17, 11500,     2, 11499
18, 11499,  1411,  1410
19, 11501,  1409,  1408
20, 11501, 11499,  1409
** ... 81899 like lines cut
*Nset, nset=Set-1
     1,     2,     3,     4,     5,     6,     7,     8,     9,    10,    11,    12,    13,    14,    15,    16
    17,    18,    19,    20,    21,    22,    23,    24,    25,    26,    27,    28,    29,    30,    31,    32
    33,    34,    35,    36,    37,    38,    39,    40,    41,    42,    43,    44,    45,    46,    47,    48
    49,    50,    51,    52,    53,    54,    55,    56,    57,    58,    59,    60,    61,    62,    63,    64
    65,    66,    67,    68,    69,    70,    71,    72,    73,    74,    75,    76,    77,    78,    79,    80
    81,    82,    83,    84,    85,    86,    87,    88,    89,    90,    91,    92,    93,    94,    95,    96
    97,    98,    99,   100,   101,   102,   103,   104,   105,   106,   107,   108,   109,   110,   111,   112
   113,   114,   115,   116,   117,   118,   119,   120,   121,   122,   123,   124,   125,   126,   127,   128
   129,   130,   131,   132,   133,   134,   135,   136,   137,   138,   139,   140,   141,   142,   143,   144
   145,   146,   147,   148,   149,   150,   151,   152,   153,   154,   155,   156,   157,   158,   159,   160
   161,   162,   163,   164,   165,   166,   167,   168,   169,   170,   171,   172,   173,   174,   175,   176
   177,   178,   179,   180,   181,   182,   183,   184,   185,   186,   187,   188,   189,   190,   191,   192
   193,   194,   195,   196,   197,   198,   199,   200,   201,   202,   203,   204,   205,   206,   207,   208
   209,   210,   211,   212,   213,   214,   215,   216,   217,   218,   219,   220,   221,   222,   223,   224
   225,   226,   227,   228,   229,   230,   231,   232,   233,   234,   235,   236,   237,   238,   239,   240
   241,   242,   243,   244,   245,   246,   247,   248,   249,   250,   251,   252,   253,   254,   255,   256
   257,   258,   259,   260,   261,   262,   263,   264,   265,   266,   267,   268,   269,   270,   271,   272
   273,   274,   275,   276,   277,   278,   279,   280,   281,   282,   283,   284,   285,   286,   287,   288
   289,   290,   291,   292,   293,   294,   295,   296,   297,   298,   299,   300,   301,   302,   303,   304
   305,   306,   307,   308,   309,   310,   311,   312,   313,   314,   315,   316,   317,   318,   319,   320
** ... 2290 like lines cut
*Elset, elset=Set-1, generate
 16717,  81919,      1
*Nset, nset=Set-2
     1,     2,     3,     4,     5,     6,     7,     8,     9,    10,    11,    12,    13,    14,    15,    16
    17,    18,    19,    20,    21,    22,    23,    24,    25,    26,    27,    28,    29,    30,    31,    32
    33,    34,    35,    36,    37,    38,    39,    40,    41,    42,    43,    44,    45,    46,    47,    48
    49,    50,    51,    52,    53,    54,    55,    56,    57,    58,    59,    60,    61,    62,    63,    64
    65,    66,    67,    68,    69,    70,    71,    72,    73,    74,    75,    76,    77,    78,    79,    80
    81,    82,    83,    84,    85,    86,    87,    88,    89,    90,    91,    92,    93,    94,    95,    96
    97,    98,    99,   100,   101,   102,   103,   104,   105,   106,   107,   108,   109,   110,   111,   112
   113,   114,   115,   116,   117,   118,   119,   120,   121,   122,   123,   124,   125,   126,   127,   128
   129,   130,   131,   132,   133,   134,   135,   136,   137,   138,   139,   140,   141,   142,   143,   144
   145,   146,   147,   148,   149,   150,   151,   152,   153,   154,   155,   156,   157,   158,   159,   160
   161,   162,   163,   164,   165,   166,   167,   168,   169,   170,   171,   172,   173,   174,   175,   176
   177,   178,   179,   180,   181,   182,   183,   184,   185,   186,   187,   188,   189,   190,   191,   192
   193,   194,   195,   196,   197,   198,   199,   200,   201,   202,   203,   204,   205,   206,   207,   208
   209,   210,   211,   212,   213,   214,   215,   216,   217,   218,   219,   220,   221,   222,   223,   224
   225,   226,   227,   228,   229,   230,   231,   232,   233,   234,   235,   236,   237,   238,   239,   240
   241,   242,   243,   244,   245,   246,   247,   248,   249,   250,   251,   252,   253,   254,   255,   256
   257,   258,   259,   260,   261,   262,   263,   264,   265,   266,   267,   268,   269,   270,   271,   272
   273,   274,   275,   276,   277,   278,   279,   280,   281,   282,   283,   284,   285,   286,   287,   288
   289,   290,   291,   292,   293,   294,   295,   296,   297,   298,   299,   300,   301,   302,   303,   304
   305,   306,   307,   308,   309,   310,   311,   312,   313,   314,   315,   316,   317,   318,   319,   320
** ... 938 like lines cut
*Elset, elset=Set-2, generate
     1,  16716,      1
** Section: Section-2
*Solid Section, elset=Set-2, material=Material-2-Inclusion
,
** Section: Section-1
*Solid Section, elset=Set-1, material=Material-1-Matrix
,
*End Instance
**  
*Nset, nset=Set-3, instance=Union-part-1
  1394,  1395, 11149, 11150, 11151, 11152, 11153, 11154, 11155, 11156, 11157, 11158, 11159, 11160, 11161, 11162
 11163, 11164, 11165, 11166, 11167, 11168, 11169, 11170, 11171, 11172, 11173, 11174, 11175, 11176, 11177, 11178
 11179, 11180, 11181, 11182, 11183, 11184, 11185, 11186, 11187, 11188, 11189, 11190, 11191, 11192, 11193, 11194
 11195, 11196, 11197, 11198, 11199, 11200, 11201, 11202, 11203, 11204, 11205, 11206, 11207, 11208, 11209, 11210
 11211, 11212, 11213, 11214, 11215, 11216, 11217, 11218, 11219, 11220, 11221, 11222, 11223, 11224, 11225, 11226
 11227, 11228, 11229, 11230, 11231, 11232, 11233, 11234, 11235
*Elset, elset=Set-3, instance=Union-part-1
 20735, 35724, 35926, 35971, 36149, 36151, 36158, 36518, 36548, 36597, 36624, 36643, 36716, 36834, 36898, 36902
 36935, 36952, 36958, 36968, 36978, 36982, 36994, 36999, 37013, 37016, 37029, 37036, 37039, 37045, 37048, 37052
 37055, 37062, 37064, 37067, 37077, 37087, 37090, 37095, 37099, 37117, 37123, 37128, 37133, 37138, 37139, 37143
 37144, 37147, 37148, 37149, 37150, 37151, 37152, 37153, 38546, 39809, 39810, 39811, 39812, 39813, 39814, 39815
 39816, 39817, 39818, 39819, 39820, 39821, 39822, 39823, 51693, 51990, 53376, 53429, 53430, 53433, 60410, 60413
 60414, 60417, 60418, 60421, 60422, 60424, 60426, 60433
*Elset, elset=_Surf-1_S3, internal, instance=Union-part-1
 16726, 16757, 16817, 16982, 16989, 17089, 17096, 17106, 17143
*Elset, elset=_Surf-1_S2, internal, instance=Union-part-1
 16779, 16816, 16833, 16837, 16841, 16993, 16997, 17100, 17103, 37252, 37254, 39838, 39839, 45119, 45123, 45131
 61157, 62293, 79041, 79547, 80064
*Elset, elset=_Surf-1_S1, internal, instance=Union-part-1
 39836, 39837
*Surface, type=ELEMENT, name=Surf-1
_Surf-1_S3, S3
_Surf-1_S2, S2
_Surf-1_S1, S1
*End Assembly
** 
** MATERIALS
** 
*Material, name=Material-1-Matrix
*Elastic
10., 0.2
*Material, name=Material-2-Inclusion
*Elastic
10000., 0.33
** ----------------------------------------------------------------
** 
** STEP: Step-1
** 
*Step, name=Step-1
*Static
1., 1., 1e-05, 1.
** 
** BOUNDARY CONDITIONS
** 
** Name: BC-1 Type: Displacement/Rotation
*Boundary
Set-3, 1, 1
Set-3, 2, 2
Set-3, 6, 6
** 
** LOADS
** 
** Name: Load-1   Type: Surface traction
*Dsload
Surf-1, TRSHR, 4., 0., 1., 0.
** 
** OUTPUT REQUESTS
** 
*Restart, write, frequency=0
** 
** FIELD OUTPUT: F-Output-1
** 
*Output, field, variable=PRESELECT
** 
** HISTORY OUTPUT: H-Output-1
** 
*Output, history, variable=PRESELECT
*End Step
