*Heading
** Job name: Job-1 Model name: Model-1
** Generated by: Abaqus/CAE 6.12-3
*Preprint, echo=NO, model=NO, history=NO, contact=NO
**
** PARTS
**
*Part, name=Union-part
*End Part
**  
**
** ASSEMBLY
**
*Assembly, name=Assembly
**  
*Instance, name=Union-part-1, part=Union-part
*Node
      1,        -6.25,          10.
      2,          15.,          20.
      3,         -25.,          20.
      4,         -25.,         -15.
      5,          15.,         -15.
      6,  -2.34834957,   9.41941738
      7,           0.,         6.25
      8, -0.580582619,   2.34834957
      9,        -3.75,           0.
     10,  -7.65165043,  0.580582619
     11,         -10.,         3.75
     12,  -9.41941738,   7.65165043
     13,          10.,          20.
     14,           5.,          20.
     15,           0.,          20.
     16,          -5.,          20.
     17,         -10.,          20.
     18,         -15.,          20.
     19,         -20.,          20.
     20,         -25.,          15.
** ... 72 like lines cut
*Element, type=CPS3
 1, 39,  1, 12
 2, 41, 39, 12
 3, 41,  9, 40
 4, 41, 40, 39
 5, 40,  7, 39
 6, 39,  6,  1
 7, 39,  7,  6
 8, 41, 12, 11
 9, 40,  9,  8
10, 40,  8,  7
11, 41, 11, 10
12, 41, 10,  9
 13, 60, 50, 17
 14, 50,  1, 49
 15, 71, 59, 47
 16, 59, 51, 14
 17, 92, 82, 52
 18, 53, 36, 52
 19, 69, 35, 53
 20, 84, 78, 72
** ... 132 like lines cut
*Nset, nset=Set-1
  1,  2,  3,  4,  5,  6,  7,  8,  9, 10, 11, 12, 13, 14, 15, 16
 17, 18, 19, 20, 21, 22, 23, 24, 25, 26, 27, 28, 29, 30, 31, 32
 33, 34, 35, 36, 37, 38, 42, 43, 44, 45, 46, 47, 48, 49, 50, 51
 52, 53, 54, 55, 56, 57, 58, 59, 60, 61, 62, 63, 64, 65, 66, 67
 68, 69, 70, 71, 72, 73, 74, 75, 76, 77, 78, 79, 80, 81, 82, 83
 84, 85, 86, 87, 88, 89, 90, 91, 92
*Elset, elset=Set-1, generate
  13,  152,    1
*Nset, nset=Set-2
  1,  6,  7,  8,  9, 10, 11, 12, 39, 40, 41
*Elset, elset=Set-2, generate
  1,  12,   1
** Section: Section-2
*Solid Section, elset=Set-2, material=Material-2
,
** Section: Section-1
*Solid Section, elset=Set-1, material=Material-1
,
*End Instance
**  
*Nset, nset=Set-3, instance=Union-part-1
  3,  4, 20, 21, 22, 23, 24, 25
*Elset, elset=Set-3, instance=Union-part-1
 34, 39, 81, 82, 84, 91, 95
*Elset, elset=_Surf-1_S3, internal, instance=Union-part-1
 45,
*Elset, elset=_Surf-1_S1, internal, instance=Union-part-1
 50,
*Elset, elset=_Surf-1_S2, internal, instance=Union-part-1
  71,  74,  75,  76, 107
*Surface, type=ELEMENT, name=Surf-1
_Surf-1_S3, S3
_Surf-1_S1, S1
_Surf-1_S2, S2
*End Assembly
** 
** MATERIALS
** 
*Material, name=Material-1
*Elastic
1., 0.3
*Material, name=Material-2
*Elastic
1000., 0.2
** ----------------------------------------------------------------
** 
** STEP: Step-1
** 
*Step, name=Step-1
*Static
1., 1., 1e-05, 1.
** 
** BOUNDARY CONDITIONS
** 
** Name: BC-1 Type: Displacement/Rotation
*Boundary
Set-3, 1, 1
Set-3, 2, 2
Set-3, 6, 6
** 
** LOADS
** 
** Name: Load-1   Type: Surface traction
*Dsload
Surf-1, TRSHR, 5., 0., 1., 0.
** 
** OUTPUT REQUESTS
** 
*Restart, write, frequency=0
** 
** FIELD OUTPUT: F-Output-1
** 
*Output, field, variable=PRESELECT
** 
** HISTORY OUTPUT: H-Output-1
** 
*Output, history, variable=PRESELECT
*End Step
