*Heading
** Job name: TimoBeam_mesh1_Q4 Model name: TimoshenkoBeam
** Generated by: Abaqus/CAE 6.12-3
*Preprint, echo=NO, model=NO, history=NO, contact=NO
**
** PARTS
**
*Part, name=Part-1
*Node
      1,           0.,          -2.
      2,           1.,          -2.
      3,           2.,          -2.
      4,           3.,          -2.
      5,           4.,          -2.
      6,           5.,          -2.
      7,           6.,          -2.
      8,           7.,          -2.
      9,           8.,          -2.
     10,           9.,          -2.
     11,          10.,          -2.
     12,          11.,          -2.
     13,          12.,          -2.
     14,          13.,          -2.
     15,          14.,          -2.
     16,          15.,          -2.
     17,          16.,          -2.
     18,           0.,          -1.
     19,           1.,          -1.
     20,           2.,          -1.
** ... 65 like lines cut
*Element, type=CPS4
 1,  1,  2, 19, 18
 2,  2,  3, 20, 19
 3,  3,  4, 21, 20
 4,  4,  5, 22, 21
 5,  5,  6, 23, 22
 6,  6,  7, 24, 23
 7,  7,  8, 25, 24
 8,  8,  9, 26, 25
 9,  9, 10, 27, 26
10, 10, 11, 28, 27
11, 11, 12, 29, 28
12, 12, 13, 30, 29
13, 13, 14, 31, 30
14, 14, 15, 32, 31
15, 15, 16, 33, 32
16, 16, 17, 34, 33
17, 18, 19, 36, 35
18, 19, 20, 37, 36
19, 20, 21, 38, 37
20, 21, 22, 39, 38
** ... 44 like lines cut
*Nset, nset=Set-1, generate
  1,  85,   1
*Elset, elset=Set-1, generate
  1,  64,   1
** Section: Section-1
*Solid Section, elset=Set-1, material=Material-1
,
*End Part
**  
**
** ASSEMBLY
**
*Assembly, name=Assembly
**  
*Instance, name=Part-1-1, part=Part-1
*End Instance
**  
*Nset, nset=Set-1, instance=Part-1-1, generate
 35,  69,  17
*Elset, elset=Set-1, instance=Part-1-1
 33, 49
*Nset, nset=Set-2, instance=Part-1-1, generate
  1,  35,  17
*Elset, elset=Set-2, instance=Part-1-1
  1, 17
*Nset, nset=Set-3, instance=Part-1-1
 35,
*Elset, elset=_Surf-1_S2, internal, instance=Part-1-1
 48, 64
*Surface, type=ELEMENT, name=Surf-1
_Surf-1_S2, S2
*Elset, elset=_Surf-2_S2, internal, instance=Part-1-1
 16, 32
*Surface, type=ELEMENT, name=Surf-2
_Surf-2_S2, S2
*End Assembly
** 
** MATERIALS
** 
*Material, name=Material-1
*Elastic
1000., 0.3
** 
** BOUNDARY CONDITIONS
** 
** Name: BC-1 Type: Displacement/Rotation
*Boundary
Set-1, 1, 1
Set-1, 6, 6
** Name: BC-2 Type: Displacement/Rotation
*Boundary
Set-2, 1, 1
Set-2, 6, 6
** Name: BC-3 Type: Displacement/Rotation
*Boundary
Set-3, 1, 1
Set-3, 2, 2
Set-3, 6, 6
** ----------------------------------------------------------------
** 
** STEP: LoadingStep
** 
*Step, name=LoadingStep
*Static
1., 1., 1e-05, 1.
** 
** LOADS
** 
** Name: Load-1   Type: Surface traction Using Field: Parapolic shear
*Dload, op=NEW
Part-1-1.48, TRVEC2, 348.75, 0., -1., 0.
Part-1-1.64, TRVEC2, 162.75, 0., -1., 0.
** Name: Load-2   Type: Surface traction Using Field: Parapolic shear
*Dload, op=NEW
Part-1-1.16, TRSHR2, 162.75, 0., -1., 0.
Part-1-1.32, TRSHR2, 348.75, 0., -1., 0.
** 
** OUTPUT REQUESTS
** 
*Restart, write, frequency=0
** 
** FIELD OUTPUT: F-Output-1
** 
*Output, field, variable=PRESELECT
** 
** HISTORY OUTPUT: H-Output-1
** 
*Output, history, variable=PRESELECT
*End Step
