*Heading
** Job name: Job-7 Model name: Model-1
** Generated by: Abaqus/CAE 6.12-3
*Preprint, echo=NO, model=NO, history=NO, contact=NO
**
** PARTS
**
*Part, name=Union-part
*End Part
**  
**
** ASSEMBLY
**
*Assembly, name=Assembly
**  
*Instance, name=Union-part-1, part=Union-part
*Node
      1,         19.5,   4.75231314
      2,         19.5,   3.75231314
      3,         19.5,   2.75231314
      4,         19.5,   1.75231326
      5,         19.5,  0.752313256
      6,         18.5,   4.75231314
      7,         18.5,   3.75231314
      8,         18.5,   2.75231314
      9,         18.5,   1.75231326
     10,         18.5,  0.752313256
     11,         17.5,   4.75231314
     12,         17.5,   3.75231314
     13,         17.5,   2.75231314
     14,         17.5,   1.75231326
     15,         17.5,  0.752313256
     16,         16.5,   4.75231314
     17,         16.5,   3.75231314
     18,         16.5,   2.75231314
     19,         16.5,   1.75231326
     20,         16.5,  0.752313256
** ... 3130 like lines cut
*Element, type=CPS4
1,  108,  107, 1051,  109
2, 1051,  105,    1,  111
3,  106,  105, 1051,  107
4,  110,  109, 1051,  111
5,  115,  114, 1052,  116
6, 1052,  112,    2,  118
7,  113,  112, 1052,  114
8,  117,  116, 1052,  118
 9,  122,  121, 1053,  123
10, 1053,  119,    3,  125
11,  120,  119, 1053,  121
12,  124,  123, 1053,  125
13,    4,  132, 1054,  126
14, 1054,  132,  131,  130
15,  129,  128, 1054,  130
16, 1054,  128,  127,  126
17,    5,  139, 1055,  133
18, 1055,  139,  138,  137
19,  134,  133, 1055,  135
20,  136,  135, 1055,  137
** ... 3004 like lines cut
*Nset, nset=Set-1
    1,    2,    3,    4,    5,    6,    7,    8,    9,   10,   11,   12,   13,   14,   15,   16
   17,   18,   19,   20,   21,   22,   23,   24,   25,   26,   27,   28,   29,   30,   31,   32
   33,   34,   35,   36,   37,   38,   39,   40,   41,   42,   43,   44,   45,   46,   47,   48
   49,   50,   51,   52,   53,   54,   55,   56,   57,   58,   59,   60,   61,   62,   63,   64
   65,   66,   67,   68,   69,   70,   71,   72,   73,   74,   75,   76,   77,   78,   79,   80
   81,   82,   83,   84,   85,   86,   87,   88,   89,   90,   91,   92,   93,   94,   95,   96
   97,   98,   99,  100,  101,  102,  103,  104,  105,  106,  107,  108,  109,  110,  111,  112
  113,  114,  115,  116,  117,  118,  119,  120,  121,  122,  123,  124,  125,  126,  127,  128
  129,  130,  131,  132,  133,  134,  135,  136,  137,  138,  139,  140,  141,  142,  143,  144
  145,  146,  147,  148,  149,  150,  151,  152,  153,  154,  155,  156,  157,  158,  159,  160
  161,  162,  163,  164,  165,  166,  167,  168,  169,  170,  171,  172,  173,  174,  175,  176
  177,  178,  179,  180,  181,  182,  183,  184,  185,  186,  187,  188,  189,  190,  191,  192
  193,  194,  195,  196,  197,  198,  199,  200,  201,  202,  203,  204,  205,  206,  207,  208
  209,  210,  211,  212,  213,  214,  215,  216,  217,  218,  219,  220,  221,  222,  223,  224
  225,  226,  227,  228,  229,  230,  231,  232,  233,  234,  235,  236,  237,  238,  239,  240
  241,  242,  243,  244,  245,  246,  247,  248,  249,  250,  251,  252,  253,  254,  255,  256
  257,  258,  259,  260,  261,  262,  263,  264,  265,  266,  267,  268,  269,  270,  271,  272
  273,  274,  275,  276,  277,  278,  279,  280,  281,  282,  283,  284,  285,  286,  287,  288
  289,  290,  291,  292,  293,  294,  295,  296,  297,  298,  299,  300,  301,  302,  303,  304
  305,  306,  307,  308,  309,  310,  311,  312,  313,  314,  315,  316,  317,  318,  319,  320
** ... 171 like lines cut
*Elset, elset=Set-1, generate
  401,  3024,     1
*Nset, nset=Set-2
    1,    2,    3,    4,    5,    6,    7,    8,    9,   10,   11,   12,   13,   14,   15,   16
   17,   18,   19,   20,   21,   22,   23,   24,   25,   26,   27,   28,   29,   30,   31,   32
   33,   34,   35,   36,   37,   38,   39,   40,   41,   42,   43,   44,   45,   46,   47,   48
   49,   50,   51,   52,   53,   54,   55,   56,   57,   58,   59,   60,   61,   62,   63,   64
   65,   66,   67,   68,   69,   70,   71,   72,   73,   74,   75,   76,   77,   78,   79,   80
   81,   82,   83,   84,   85,   86,   87,   88,   89,   90,   91,   92,   93,   94,   95,   96
   97,   98,   99,  100,  105,  106,  107,  108,  109,  110,  111,  112,  113,  114,  115,  116
  117,  118,  119,  120,  121,  122,  123,  124,  125,  126,  127,  128,  129,  130,  131,  132
  133,  134,  135,  136,  137,  138,  139,  140,  141,  142,  143,  144,  145,  146,  147,  148
  149,  150,  151,  152,  153,  154,  155,  156,  157,  158,  159,  160,  161,  162,  163,  164
  165,  166,  167,  168,  169,  170,  171,  172,  173,  174,  175,  176,  177,  178,  179,  180
  181,  182,  183,  184,  185,  186,  187,  188,  189,  190,  191,  192,  193,  194,  195,  196
  197,  198,  199,  200,  201,  202,  203,  204,  205,  206,  207,  208,  209,  210,  211,  212
  213,  214,  215,  216,  217,  218,  219,  220,  221,  222,  223,  224,  225,  226,  227,  228
  229,  230,  231,  232,  233,  234,  235,  236,  237,  238,  239,  240,  241,  242,  243,  244
  245,  246,  247,  248,  249,  250,  251,  252,  253,  254,  255,  256,  257,  258,  259,  260
  261,  262,  263,  264,  265,  266,  267,  268,  269,  270,  271,  272,  273,  274,  275,  276
  277,  278,  279,  280,  281,  282,  283,  284,  285,  286,  287,  288,  289,  290,  291,  292
  293,  294,  295,  296,  297,  298,  299,  300,  301,  302,  303,  304,  305,  306,  307,  308
  309,  310,  311,  312,  313,  314,  315,  316,  317,  318,  319,  320,  321,  322,  323,  324
** ... 37 like lines cut
*Elset, elset=Set-2, generate
   1,  400,    1
** Section: Inclusion-section
*Solid Section, elset=Set-2, material=Inclusion-material
1.,
** Section: Beam-section
*Solid Section, elset=Set-1, material=Beam-material
1.,
*End Instance
**  
*Nset, nset=Set-1, instance=Union-part-1
 101, 102, 805, 806, 807, 808, 809, 810, 811, 812, 813, 814, 815, 816, 817, 818
 819, 820, 821, 822, 823, 824, 825, 826, 827, 828
*Elset, elset=Set-1, instance=Union-part-1
 1561, 1572, 1580, 1585, 1586, 1595, 1597, 1685, 1687, 1689, 1690, 1693, 1694, 1759, 2129, 2131
 2153, 2247, 2429, 2441, 2443, 2844, 2846, 2851, 2859
*Nset, nset=Set-7, instance=Union-part-1
 104,
*Nset, nset=Set-20, instance=Union-part-1
 103, 104, 928, 929, 930, 931, 932, 933, 934, 935, 936, 937, 938, 939, 940, 941
 942, 943, 944, 945, 946, 947, 948, 949, 950, 951
*Elset, elset=Set-20, instance=Union-part-1
  406,  411,  425,  428,  430,  441,  471, 1606, 1725, 1726, 1728, 1733, 1734, 1988, 1990, 1996
 2003, 2006, 2427, 2432, 2445, 2837, 2839, 2840, 2856
*Elset, elset=_Surf-1_S1, internal, instance=Union-part-1
  406,  425, 1725, 1728, 1990, 1996, 2003, 2445, 2839
*Elset, elset=_Surf-1_S3, internal, instance=Union-part-1
  411,  428,  430,  441,  471, 1606, 1733, 2006, 2432, 2837, 2840
*Elset, elset=_Surf-1_S4, internal, instance=Union-part-1
 1726, 1734, 1988, 2856
*Elset, elset=_Surf-1_S2, internal, instance=Union-part-1
 2427,
*Surface, type=ELEMENT, name=Surf-1
_Surf-1_S1, S1
_Surf-1_S3, S3
_Surf-1_S4, S4
_Surf-1_S2, S2
*Elset, elset=_Surf-2_S1, internal, instance=Union-part-1
  406,  425, 1725, 1728, 1990, 1996, 2003, 2445, 2839
*Elset, elset=_Surf-2_S3, internal, instance=Union-part-1
  411,  428,  430,  441,  471, 1606, 1733, 2006, 2432, 2837, 2840
*Elset, elset=_Surf-2_S4, internal, instance=Union-part-1
 1726, 1734, 1988, 2856
*Elset, elset=_Surf-2_S2, internal, instance=Union-part-1
 2427,
*Surface, type=ELEMENT, name=Surf-2
_Surf-2_S1, S1
_Surf-2_S3, S3
_Surf-2_S4, S4
_Surf-2_S2, S2
*End Assembly
** 
** MATERIALS
** 
*Material, name=Beam-material
*Elastic
1000., 0.3
*Material, name=Inclusion-material
*Elastic
100000., 0.3
** ----------------------------------------------------------------
** 
** STEP: Step-1
** 
*Step, name=Step-1
*Static
1., 1., 1e-05, 1.
** 
** BOUNDARY CONDITIONS
** 
** Name: BC-1 Type: Displacement/Rotation
*Boundary
Set-1, 1, 1
Set-1, 2, 2
Set-1, 6, 6
** Name: BC-2 Type: Displacement/Rotation
*Boundary
Set-20, 1, 1
Set-20, 2, 2
Set-20, 6, 6
** 
** LOADS
** 
** Name: Load-1   Type: Surface traction
*Dsload
Surf-2, TRSHR, 0.25, 0., -1., 0.
** 
** OUTPUT REQUESTS
** 
*Restart, write, frequency=0
** 
** FIELD OUTPUT: F-Output-1
** 
*Output, field, variable=PRESELECT
** 
** HISTORY OUTPUT: H-Output-1
** 
*Output, history, variable=PRESELECT
*End Step
