*Heading
** Job name: Cook-Q4-Job-2 Model name: Model-1
** Generated by: Abaqus/CAE 6.12-3
*Preprint, echo=NO, model=NO, history=NO, contact=NO
**
** PARTS
**
*Part, name=Part-1
*End Part
**  
**
** ASSEMBLY
**
*Assembly, name=Assembly
**  
*Instance, name=Part-1-1, part=Part-1
*Node
      1,           0.,          50.
      2,           0.,   47.0588226
      3,           0.,   44.1176453
      4,           0.,   41.1764717
      5,           0.,   38.2352943
      6,           0.,    35.294117
      7,           0.,   32.3529396
      8,           0.,   29.4117641
      9,           0.,   26.4705887
     10,           0.,   23.5294113
     11,           0.,   20.5882359
     12,           0.,   17.6470585
     13,           0.,   14.7058821
     14,           0.,   11.7647057
     15,           0.,   8.82352924
     16,           0.,   5.88235283
     17,           0.,   2.94117641
     18,           0.,           0.
     19,   1.65517247,   50.3448257
     20,   1.65517247,   47.4726181
** ... 520 like lines cut
*Element, type=CPE4
  1,   1,   2,  20,  19
  2,   2,   3,  21,  20
  3,   3,   4,  22,  21
  4,   4,   5,  23,  22
  5,   5,   6,  24,  23
  6,   6,   7,  25,  24
  7,   7,   8,  26,  25
  8,   8,   9,  27,  26
  9,   9,  10,  28,  27
 10,  10,  11,  29,  28
 11,  11,  12,  30,  29
 12,  12,  13,  31,  30
 13,  13,  14,  32,  31
 14,  14,  15,  33,  32
 15,  15,  16,  34,  33
 16,  16,  17,  35,  34
 17,  17,  18,  36,  35
 18,  19,  20,  38,  37
 19,  20,  21,  39,  38
 20,  21,  22,  40,  39
** ... 473 like lines cut
*Nset, nset=Set-1, generate
   1,  540,    1
*Elset, elset=Set-1, generate
   1,  493,    1
** Section: Section-1
*Solid Section, elset=Set-1, material=Material-1
1.,
*End Instance
**  
*Nset, nset=Set-1, instance=Part-1-1, generate
  1,  18,   1
*Elset, elset=Set-1, instance=Part-1-1, generate
  1,  17,   1
*Elset, elset=_Surf-1_S3, internal, instance=Part-1-1, generate
 477,  493,    1
*Surface, type=ELEMENT, name=Surf-1
_Surf-1_S3, S3
*End Assembly
** 
** MATERIALS
** 
*Material, name=Material-1
*Elastic
1000., 0.25
** ----------------------------------------------------------------
** 
** STEP: Step-1
** 
*Step, name=Step-1
*Static
1., 1., 1e-05, 1.
** 
** BOUNDARY CONDITIONS
** 
** Name: BC-1 Type: Displacement/Rotation
*Boundary
Set-1, 1, 1
Set-1, 2, 2
Set-1, 6, 6
** 
** LOADS
** 
** Name: Load-1   Type: Surface traction
*Dsload
Surf-1, TRSHR, 4., 0., 1., 0.
** 
** OUTPUT REQUESTS
** 
*Restart, write, frequency=0
** 
** FIELD OUTPUT: F-Output-1
** 
*Output, field, variable=PRESELECT
** 
** HISTORY OUTPUT: H-Output-1
** 
*Output, history, variable=PRESELECT
*End Step
