*Heading
** Job name: Job-1 Model name: Model-1
** Generated by: Abaqus/CAE 6.12-3
*Preprint, echo=NO, model=NO, history=NO, contact=NO
**
** PARTS
**
*Part, name=Union-part
*End Part
**  
**
** ASSEMBLY
**
*Assembly, name=Assembly
**  
*Instance, name=Union-part-1, part=Union-part
*Node
      1,         19.5,   4.75231314
      2,         19.5,   3.75231314
      3,         19.5,   2.75231314
      4,         19.5,   1.75231326
      5,         19.5,  0.752313256
      6,         18.5,   4.75231314
      7,         18.5,   3.75231314
      8,         18.5,   2.75231314
      9,         18.5,   1.75231326
     10,         18.5,  0.752313256
     11,         17.5,   4.75231314
     12,         17.5,   3.75231314
     13,         17.5,   2.75231314
     14,         17.5,   1.75231326
     15,         17.5,  0.752313256
     16,         16.5,   4.75231314
     17,         16.5,   3.75231314
     18,         16.5,   2.75231314
     19,         16.5,   1.75231326
     20,         16.5,  0.752313256
** ... 3004 like lines cut
*Element, type=CPE3
 1, 1051,    1,  111
 2, 1051,  106,  105
 3, 1053,  108, 1052
 4, 1053, 1052, 1051
 5, 1052,  106, 1051
 6, 1051,  105,    1
 7, 1053,  111,  110
 8, 1053, 1051,  111
 9, 1052,  108,  107
10, 1052,  107,  106
11, 1053,  110,  109
12, 1053,  109,  108
13, 1054,    2,  118
14, 1054,  113,  112
15, 1056,  115, 1055
16, 1056, 1055, 1054
17, 1055,  113, 1054
18, 1054,  112,    2
19, 1056,  118,  117
20, 1056, 1054,  118
** ... 5776 like lines cut
*Nset, nset=Set-1
    1,    2,    3,    4,    5,    6,    7,    8,    9,   10,   11,   12,   13,   14,   15,   16
   17,   18,   19,   20,   21,   22,   23,   24,   25,   26,   27,   28,   29,   30,   31,   32
   33,   34,   35,   36,   37,   38,   39,   40,   41,   42,   43,   44,   45,   46,   47,   48
   49,   50,   51,   52,   53,   54,   55,   56,   57,   58,   59,   60,   61,   62,   63,   64
   65,   66,   67,   68,   69,   70,   71,   72,   73,   74,   75,   76,   77,   78,   79,   80
   81,   82,   83,   84,   85,   86,   87,   88,   89,   90,   91,   92,   93,   94,   95,   96
   97,   98,   99,  100,  101,  102,  103,  104,  105,  106,  107,  108,  109,  110,  111,  112
  113,  114,  115,  116,  117,  118,  119,  120,  121,  122,  123,  124,  125,  126,  127,  128
  129,  130,  131,  132,  133,  134,  135,  136,  137,  138,  139,  140,  141,  142,  143,  144
  145,  146,  147,  148,  149,  150,  151,  152,  153,  154,  155,  156,  157,  158,  159,  160
  161,  162,  163,  164,  165,  166,  167,  168,  169,  170,  171,  172,  173,  174,  175,  176
  177,  178,  179,  180,  181,  182,  183,  184,  185,  186,  187,  188,  189,  190,  191,  192
  193,  194,  195,  196,  197,  198,  199,  200,  201,  202,  203,  204,  205,  206,  207,  208
  209,  210,  211,  212,  213,  214,  215,  216,  217,  218,  219,  220,  221,  222,  223,  224
  225,  226,  227,  228,  229,  230,  231,  232,  233,  234,  235,  236,  237,  238,  239,  240
  241,  242,  243,  244,  245,  246,  247,  248,  249,  250,  251,  252,  253,  254,  255,  256
  257,  258,  259,  260,  261,  262,  263,  264,  265,  266,  267,  268,  269,  270,  271,  272
  273,  274,  275,  276,  277,  278,  279,  280,  281,  282,  283,  284,  285,  286,  287,  288
  289,  290,  291,  292,  293,  294,  295,  296,  297,  298,  299,  300,  301,  302,  303,  304
  305,  306,  307,  308,  309,  310,  311,  312,  313,  314,  315,  316,  317,  318,  319,  320
** ... 151 like lines cut
*Elset, elset=Set-1, generate
 1201,  5796,     1
*Nset, nset=Set-2
    1,    2,    3,    4,    5,    6,    7,    8,    9,   10,   11,   12,   13,   14,   15,   16
   17,   18,   19,   20,   21,   22,   23,   24,   25,   26,   27,   28,   29,   30,   31,   32
   33,   34,   35,   36,   37,   38,   39,   40,   41,   42,   43,   44,   45,   46,   47,   48
   49,   50,   51,   52,   53,   54,   55,   56,   57,   58,   59,   60,   61,   62,   63,   64
   65,   66,   67,   68,   69,   70,   71,   72,   73,   74,   75,   76,   77,   78,   79,   80
   81,   82,   83,   84,   85,   86,   87,   88,   89,   90,   91,   92,   93,   94,   95,   96
   97,   98,   99,  100,  105,  106,  107,  108,  109,  110,  111,  112,  113,  114,  115,  116
  117,  118,  119,  120,  121,  122,  123,  124,  125,  126,  127,  128,  129,  130,  131,  132
  133,  134,  135,  136,  137,  138,  139,  140,  141,  142,  143,  144,  145,  146,  147,  148
  149,  150,  151,  152,  153,  154,  155,  156,  157,  158,  159,  160,  161,  162,  163,  164
  165,  166,  167,  168,  169,  170,  171,  172,  173,  174,  175,  176,  177,  178,  179,  180
  181,  182,  183,  184,  185,  186,  187,  188,  189,  190,  191,  192,  193,  194,  195,  196
  197,  198,  199,  200,  201,  202,  203,  204,  205,  206,  207,  208,  209,  210,  211,  212
  213,  214,  215,  216,  217,  218,  219,  220,  221,  222,  223,  224,  225,  226,  227,  228
  229,  230,  231,  232,  233,  234,  235,  236,  237,  238,  239,  240,  241,  242,  243,  244
  245,  246,  247,  248,  249,  250,  251,  252,  253,  254,  255,  256,  257,  258,  259,  260
  261,  262,  263,  264,  265,  266,  267,  268,  269,  270,  271,  272,  273,  274,  275,  276
  277,  278,  279,  280,  281,  282,  283,  284,  285,  286,  287,  288,  289,  290,  291,  292
  293,  294,  295,  296,  297,  298,  299,  300,  301,  302,  303,  304,  305,  306,  307,  308
  309,  310,  311,  312,  313,  314,  315,  316,  317,  318,  319,  320,  321,  322,  323,  324
** ... 49 like lines cut
*Elset, elset=Set-2, generate
    1,  1200,     1
** Section: Inclusion-section
*Solid Section, elset=Set-2, material=Inclusion-material
,
** Section: Beam-section
*Solid Section, elset=Set-1, material=Beam-material
,
*End Instance
**  
*Nset, nset=Set-1, instance=Union-part-1
 101, 102, 805, 806, 807, 808, 809, 810, 811, 812, 813, 814, 815, 816, 817, 818
 819, 820, 821, 822, 823, 824, 825, 826, 827, 828
*Elset, elset=Set-1, instance=Union-part-1
 2669, 2675, 2684, 2851, 2854, 2856, 2858, 2860, 2861, 2862, 2863, 2864, 2994, 3444, 3612, 4374
 4375, 4428, 4429, 4432, 4433, 4443, 4445, 4447, 4451
*Elset, elset=_Surf-1_S3, internal, instance=Union-part-1
 1207, 1230, 1233, 2922
*Elset, elset=_Surf-1_S2, internal, instance=Union-part-1
 2703, 2928, 2930, 2932, 2933, 2934, 2935, 2936, 3426, 4371, 4382, 4384, 4399, 4401, 4403, 4408
 4412, 4441, 4479
*Elset, elset=_Surf-1_S1, internal, instance=Union-part-1
 2923, 2926
*Surface, type=ELEMENT, name=Surf-1
_Surf-1_S3, S3
_Surf-1_S2, S2
_Surf-1_S1, S1
*End Assembly
** 
** MATERIALS
** 
*Material, name=Beam-material
*Hyperelastic, neo hooke
 17.857, 0.012
*Material, name=Inclusion-material
*Hyperelastic, neo hooke
 192.31, 0.0024
** ----------------------------------------------------------------
** 
** STEP: Step-1
** 
*Step, name=Step-1, nlgeom=YES
*Static
1., 1., 1e-05, 1.
** 
** BOUNDARY CONDITIONS
** 
** Name: BC-1 Type: Displacement/Rotation
*Boundary
Set-1, 1, 1
Set-1, 2, 2
Set-1, 6, 6
** 
** LOADS
** 
** Name: Load-1   Type: Surface traction
*Dsload
Surf-1, TRSHR, 1., 0., -1., 0.
** 
** OUTPUT REQUESTS
** 
*Restart, write, frequency=0
** 
** FIELD OUTPUT: F-Output-1
** 
*Output, field, variable=PRESELECT
** 
** HISTORY OUTPUT: H-Output-1
** 
*Output, history, variable=PRESELECT
*End Step
