*Heading
** Job name: Job-1 Model name: Model-1
** Generated by: Abaqus/CAE 6.12-3
*Preprint, echo=NO, model=NO, history=NO, contact=NO
**
** PARTS
**
*Part, name=beam-part
*End Part
**  
**
** ASSEMBLY
**
*Assembly, name=Assembly
**  
*Instance, name=beam-part-1, part=beam-part
*Node
      1,           0., 0.00100000005
      2,           0.,           0.
      3, 0.00999999978, 0.00100000005
      4, 0.00999999978,           0.
      5, 0.0199999996, 0.00100000005
      6, 0.0199999996,           0.
      7, 0.0299999993, 0.00100000005
      8, 0.0299999993,           0.
      9, 0.0399999991, 0.00100000005
     10, 0.0399999991,           0.
     11, 0.0500000007, 0.00100000005
     12, 0.0500000007,           0.
     13, 0.0599999987, 0.00100000005
     14, 0.0599999987,           0.
     15, 0.0700000003, 0.00100000005
     16, 0.0700000003,           0.
     17, 0.0799999982, 0.00100000005
     18, 0.0799999982,           0.
     19, 0.0900000036, 0.00100000005
     20, 0.0900000036,           0.
** ... 62 like lines cut
*Element, type=CPE4
 1,  1,  2,  4,  3
 2,  3,  4,  6,  5
 3,  5,  6,  8,  7
 4,  7,  8, 10,  9
 5,  9, 10, 12, 11
 6, 11, 12, 14, 13
 7, 13, 14, 16, 15
 8, 15, 16, 18, 17
 9, 17, 18, 20, 19
10, 19, 20, 22, 21
11, 21, 22, 24, 23
12, 23, 24, 26, 25
13, 25, 26, 28, 27
14, 27, 28, 30, 29
15, 29, 30, 32, 31
16, 31, 32, 34, 33
17, 33, 34, 36, 35
18, 35, 36, 38, 37
19, 37, 38, 40, 39
20, 39, 40, 42, 41
** ... 20 like lines cut
*Nset, nset=Set-1, generate
  1,  82,   1
*Elset, elset=Set-1, generate
  1,  40,   1
** Section: beam-section
*Solid Section, elset=Set-1, material=Material-1
,
*End Instance
**  
*Nset, nset=Set-1, instance=beam-part-1
 1, 2
*Elset, elset=Set-1, instance=beam-part-1
 1,
*Elset, elset=_Surf-1_S4, internal, instance=beam-part-1, generate
  1,  40,   1
*Surface, type=ELEMENT, name=Surf-1
_Surf-1_S4, S4
*End Assembly
** 
** MATERIALS
** 
*Material, name=Material-1
*Elastic
 7e+10, 0.33
** 
** BOUNDARY CONDITIONS
** 
** Name: BC-1 Type: Displacement/Rotation
*Boundary
Set-1, 1, 1
Set-1, 2, 2
Set-1, 6, 6
** ----------------------------------------------------------------
** 
** STEP: Step-1
** 
*Step, name=Step-1
*Static
1., 1., 1e-05, 1.
** 
** LOADS
** 
** Name: Load-1   Type: Surface traction
*Dsload
Surf-1, TRVEC, 500., 0., -1., 0.
** 
** OUTPUT REQUESTS
** 
*Restart, write, frequency=0
** 
** FIELD OUTPUT: F-Output-1
** 
*Output, field, variable=PRESELECT
** 
** HISTORY OUTPUT: H-Output-1
** 
*Output, history, variable=PRESELECT
*End Step
