*Heading
** Job name: TimoBeam_mesh3_T3 Model name: TimoBeam
** Generated by: Abaqus/CAE 6.12-3
*Preprint, echo=NO, model=NO, history=NO, contact=NO
**
** PARTS
**
*Part, name=Part-1
*Node
      1,           0.,           2.
      2,           0.,         1.75
      3,           0.,          1.5
      4,           0.,         1.25
      5,           0.,           1.
      6,           0.,         0.75
      7,           0.,          0.5
      8,           0.,         0.25
      9,           0.,           0.
     10,           0.,        -0.25
     11,           0.,         -0.5
     12,           0.,        -0.75
     13,           0.,          -1.
     14,           0.,        -1.25
     15,           0.,         -1.5
     16,           0.,        -1.75
     17,           0.,          -2.
     18,         0.25,           2.
     19,         0.25,         1.75
     20,         0.25,          1.5
** ... 1085 like lines cut
*Element, type=CPS3
   1,    1,    2,   19
   2,   19,   18,    1
   3,    2,    3,   20
   4,   20,   19,    2
   5,    3,    4,   21
   6,   21,   20,    3
   7,    4,    5,   22
   8,   22,   21,    4
   9,    5,    6,   23
  10,   23,   22,    5
  11,    6,    7,   24
  12,   24,   23,    6
  13,    7,    8,   25
  14,   25,   24,    7
  15,    8,    9,   26
  16,   26,   25,    8
  17,    9,   10,   27
  18,   27,   26,    9
  19,   10,   11,   28
  20,   28,   27,   10
** ... 2028 like lines cut
*Nset, nset=Set-1, generate
    1,  1105,     1
*Elset, elset=Set-1, generate
    1,  2048,     1
** Section: Section-1
*Solid Section, elset=Set-1, material=Material-1
,
*End Part
**  
**
** ASSEMBLY
**
*Assembly, name=Assembly
**  
*Instance, name=Part-1-1, part=Part-1
*End Instance
**  
*Nset, nset=Set-1, instance=Part-1-1, generate
  1,  17,   1
*Elset, elset=Set-1, instance=Part-1-1, generate
  1,  31,   2
*Nset, nset=Set-2, instance=Part-1-1, generate
  1,  17,   1
*Elset, elset=Set-2, instance=Part-1-1, generate
  1,  31,   2
*End Assembly
*Amplitude, name=Amp-1
             1.,              1.,              2.,              2.
** 
** MATERIALS
** 
*Material, name=Material-1
*Elastic
 1e+06, 0.3
** ----------------------------------------------------------------
** 
** STEP: LoadingStep
** 
*Step, name=LoadingStep
*Static
1., 1., 1e-05, 1.
** 
** OUTPUT REQUESTS
** 
*Restart, write, frequency=0
** 
** FIELD OUTPUT: F-Output-1
** 
*Output, field, variable=PRESELECT
** 
** HISTORY OUTPUT: H-Output-1
** 
*Output, history, variable=PRESELECT
*End Step
