*Heading
** Job name: Cook Model name: Model-1
** Generated by: Abaqus/CAE 6.12-3
*Preprint, echo=NO, model=NO, history=NO, contact=NO
**
** PARTS
**
*Part, name=Part-1
*End Part
**  
**
** ASSEMBLY
**
*Assembly, name=Assembly
**  
*Instance, name=Part-1-1, part=Part-1
*Node
      1,           0.,          50.
      2,           0.,   45.4545441
      3,           0.,   40.9090919
      4,           0.,    36.363636
      5,           0.,    31.818182
      6,           0.,    27.272728
      7,           0.,    22.727272
      8,           0.,    18.181818
      9,           0.,    13.636364
     10,           0.,     9.090909
     11,           0.,    4.5454545
     12,           0.,           0.
     13,   2.52631569,   50.5263176
     14,   2.52631569,   46.1435394
     15,   2.52631569,   41.7607651
     16,   2.52631569,   37.3779907
     17,   2.52631569,   32.9952164
     18,   2.52631569,   28.6124401
     19,   2.52631569,   24.2296658
     20,   2.52631569,   19.8468895
** ... 220 like lines cut
*Element, type=CPE4
  1,   1,   2,  14,  13
  2,   2,   3,  15,  14
  3,   3,   4,  16,  15
  4,   4,   5,  17,  16
  5,   5,   6,  18,  17
  6,   6,   7,  19,  18
  7,   7,   8,  20,  19
  8,   8,   9,  21,  20
  9,   9,  10,  22,  21
 10,  10,  11,  23,  22
 11,  11,  12,  24,  23
 12,  13,  14,  26,  25
 13,  14,  15,  27,  26
 14,  15,  16,  28,  27
 15,  16,  17,  29,  28
 16,  17,  18,  30,  29
 17,  18,  19,  31,  30
 18,  19,  20,  32,  31
 19,  20,  21,  33,  32
 20,  21,  22,  34,  33
** ... 189 like lines cut
*Nset, nset=Set-1, generate
   1,  240,    1
*Elset, elset=Set-1, generate
   1,  209,    1
** Section: Section-1
*Solid Section, elset=Set-1, material=Material-1
1.,
*End Instance
**  
*Nset, nset=Set-1, instance=Part-1-1, generate
  1,  12,   1
*Elset, elset=Set-1, instance=Part-1-1, generate
  1,  11,   1
*Elset, elset=_Surf-1_S3, internal, instance=Part-1-1, generate
 199,  209,    1
*Surface, type=ELEMENT, name=Surf-1
_Surf-1_S3, S3
*End Assembly
** 
** MATERIALS
** 
*Material, name=Material-1
*Elastic
1000., 0.25
** ----------------------------------------------------------------
** 
** STEP: Step-1
** 
*Step, name=Step-1
*Static
1., 1., 1e-05, 1.
** 
** BOUNDARY CONDITIONS
** 
** Name: BC-1 Type: Displacement/Rotation
*Boundary
Set-1, 1, 1
Set-1, 2, 2
Set-1, 6, 6
** 
** LOADS
** 
** Name: Load-1   Type: Surface traction
*Dsload
Surf-1, TRSHR, 4., 0., 1., 0.
** 
** OUTPUT REQUESTS
** 
*Restart, write, frequency=0
** 
** FIELD OUTPUT: F-Output-1
** 
*Output, field, variable=PRESELECT
** 
** HISTORY OUTPUT: H-Output-1
** 
*Output, history, variable=PRESELECT
*End Step
