*Heading
** Job name: Job-1 Model name: Model-1
** Generated by: Abaqus/CAE 6.12-3
*Preprint, echo=NO, model=NO, history=NO, contact=NO
**
** PARTS
**
*Part, name=Part-1
*End Part
**  
**
** ASSEMBLY
**
*Assembly, name=Assembly
**  
*Instance, name=Part-1-1, part=Part-1
*Node
      1, 0.0264380388, 0.0964418501
      2, 0.0938603655,          0.5
      3,         -0.5,          0.5
      4,         -0.5, -0.000641271472
      5, -0.0999999866, -5.39062821e-05
      6,  0.100000001,           0.
      7,          0.5, 0.000222921371
      8,          0.5,          0.5
      9, 0.0934734941,         -0.5
     10,  0.026369717, -0.096460551
     11,         -0.5,         -0.5
     12,          0.5,         -0.5
     13, -0.0993014276, 0.0117993997
     14, -0.0971991867, 0.0235014502
     15, -0.0937146246, 0.0348936841
     16, -0.088918902, 0.0457539968
     17, -0.0829502121, 0.0558503605
     18, -0.0756702051, 0.0653759837
     19, -0.0672660172, 0.0739951506
     20, -0.0577754453, 0.0816210657
** ... 739 like lines cut
*Element, type=CPS4R
  1,  18,  19, 205, 194
  2,  19,  20, 206, 205
  3,  20,  21, 207, 206
  4,  21,  22, 208, 207
  5,  22,  23, 209, 208
  6,  23,  24, 210, 209
  7,  24,  25, 211, 210
  8,  25,  26, 212, 211
  9,  26,   1,  27, 212
 10, 194, 205, 213, 193
 11, 205, 206, 214, 213
 12, 206, 207, 215, 214
 13, 207, 208, 216, 215
 14, 208, 209, 217, 216
 15, 209, 210, 218, 217
 16, 210, 211, 219, 218
 17, 211, 212, 220, 219
 18, 212,  27,  28, 220
 19, 193, 213, 221, 192
 20, 213, 214, 222, 221
** ... 674 like lines cut
*Nset, nset=Set-1, generate
   1,  759,    1
*Elset, elset=Set-1, generate
   1,  694,    1
** Section: Section-1
*Solid Section, elset=Set-1, material=Material-1
1.,
*End Instance
**  
*Nset, nset=Set-1, instance=Part-1-1
  2,  3,  8, 39, 40, 41, 42, 43, 44, 45, 46, 47, 48, 49, 70, 71
 72, 73, 74, 75, 76
*Elset, elset=Set-1, instance=Part-1-1
  85,  89,  93,  97, 101, 105, 109, 113, 117, 118, 119, 120, 202, 203, 204, 205
 335, 339, 343, 347
*Nset, nset=Set-2, instance=Part-1-1
   9,  11,  12, 107, 108, 109, 110, 111, 112, 113, 114, 115, 116, 117, 162, 163
 164, 165, 166, 167, 168
*Elset, elset=Set-2, instance=Part-1-1
 348, 349, 350, 351, 352, 353, 354, 355, 356, 540, 544, 548, 588, 592, 596, 600
 601, 602, 603, 604
*End Assembly
** 
** MATERIALS
** 
*Material, name=Material-1
*Elastic
100000., 0.25
** ----------------------------------------------------------------
** 
** STEP: Step-1
** 
*Step, name=Step-1
*Static
1., 1., 1e-05, 1.
** 
** BOUNDARY CONDITIONS
** 
** Name: BC-1 Type: Displacement/Rotation
*Boundary
Set-1, 2, 2, 0.05
** Name: BC-2 Type: Displacement/Rotation
*Boundary
Set-2, 2, 2, -0.05
** 
** OUTPUT REQUESTS
** 
*Restart, write, frequency=0
** 
** FIELD OUTPUT: F-Output-1
** 
*Output, field, variable=PRESELECT
** 
** HISTORY OUTPUT: H-Output-1
** 
*Output, history, variable=PRESELECT
*End Step
