*Heading
** Job name: Job-1 Model name: Model-1
** Generated by: Abaqus/CAE 6.12-3
*Preprint, echo=NO, model=NO, history=NO, contact=NO
**
** PARTS
**
*Part, name=Beam-part
*End Part
**  
**
** ASSEMBLY
**
*Assembly, name=Assembly
**  
*Instance, name=Beam-part-1, part=Beam-part
*Node
      1,           0.,           5.
      2,           0.,   4.61538458
      3,           0.,   4.23076916
      4,           0.,   3.84615374
      5,           0.,   3.46153855
      6,           0.,   3.07692313
      7,           0.,   2.69230771
      8,           0.,   2.30769229
      9,           0.,   1.92307687
     10,           0.,   1.53846157
     11,           0.,   1.15384614
     12,           0.,  0.769230783
     13,           0.,  0.384615391
     14,           0.,           0.
     15,  0.400000006,           5.
     16,  0.400000006,   4.61538458
     17,  0.400000006,   4.23076916
     18,  0.400000006,   3.84615374
     19,  0.400000006,   3.46153855
     20,  0.400000006,   3.07692313
** ... 694 like lines cut
*Element, type=CPE4
  1,   1,   2,  16,  15
  2,   2,   3,  17,  16
  3,   3,   4,  18,  17
  4,   4,   5,  19,  18
  5,   5,   6,  20,  19
  6,   6,   7,  21,  20
  7,   7,   8,  22,  21
  8,   8,   9,  23,  22
  9,   9,  10,  24,  23
 10,  10,  11,  25,  24
 11,  11,  12,  26,  25
 12,  12,  13,  27,  26
 13,  13,  14,  28,  27
 14,  15,  16,  30,  29
 15,  16,  17,  31,  30
 16,  17,  18,  32,  31
 17,  18,  19,  33,  32
 18,  19,  20,  34,  33
 19,  20,  21,  35,  34
 20,  21,  22,  36,  35
** ... 630 like lines cut
*Nset, nset=Set-1, generate
   1,  714,    1
*Elset, elset=Set-1, generate
   1,  650,    1
** Section: Beam-section
*Solid Section, elset=Set-1, material=Beam-material
,
*End Instance
**  
*Nset, nset=Set-3, instance=Beam-part-1, generate
  1,  14,   1
*Elset, elset=Set-3, instance=Beam-part-1, generate
  1,  13,   1
*Elset, elset=_Surf-1_S3, internal, instance=Beam-part-1, generate
 638,  650,    1
*Surface, type=ELEMENT, name=Surf-1
_Surf-1_S3, S3
*End Assembly
** 
** MATERIALS
** 
*Material, name=Beam-material
*Hyperelastic, neo hooke
 192.31, 0.0024
** 
** BOUNDARY CONDITIONS
** 
** Name: BC-1 Type: Displacement/Rotation
*Boundary
Set-3, 1, 1
Set-3, 2, 2
Set-3, 6, 6
** ----------------------------------------------------------------
** 
** STEP: Step-1
** 
*Step, name=Step-1, nlgeom=YES
*Static
1., 1., 1e-05, 1.
** 
** LOADS
** 
** Name: Load-1   Type: Surface traction
*Dsload
Surf-1, TRSHR, 0.5, 0., -1., 0.
** 
** OUTPUT REQUESTS
** 
*Restart, write, frequency=0
** 
** FIELD OUTPUT: F-Output-1
** 
*Output, field, variable=PRESELECT
** 
** HISTORY OUTPUT: H-Output-1
** 
*Output, history, variable=PRESELECT
*End Step
