*Heading
** Job name: TimoBeam_mesh3_Q4 Model name: TimoshenkoBeam
** Generated by: Abaqus/CAE 6.12-3
*Preprint, echo=NO, model=NO, history=NO, contact=NO
**
** PARTS
**
*Part, name=Part-1
*Node
      1,           0.,          -2.
      2,         0.25,          -2.
      3,          0.5,          -2.
      4,         0.75,          -2.
      5,           1.,          -2.
      6,         1.25,          -2.
      7,          1.5,          -2.
      8,         1.75,          -2.
      9,           2.,          -2.
     10,         2.25,          -2.
     11,          2.5,          -2.
     12,         2.75,          -2.
     13,           3.,          -2.
     14,         3.25,          -2.
     15,          3.5,          -2.
     16,         3.75,          -2.
     17,           4.,          -2.
     18,         4.25,          -2.
     19,          4.5,          -2.
     20,         4.75,          -2.
** ... 1085 like lines cut
*Element, type=CPS4
   1,    1,    2,   67,   66
   2,    2,    3,   68,   67
   3,    3,    4,   69,   68
   4,    4,    5,   70,   69
   5,    5,    6,   71,   70
   6,    6,    7,   72,   71
   7,    7,    8,   73,   72
   8,    8,    9,   74,   73
   9,    9,   10,   75,   74
  10,   10,   11,   76,   75
  11,   11,   12,   77,   76
  12,   12,   13,   78,   77
  13,   13,   14,   79,   78
  14,   14,   15,   80,   79
  15,   15,   16,   81,   80
  16,   16,   17,   82,   81
  17,   17,   18,   83,   82
  18,   18,   19,   84,   83
  19,   19,   20,   85,   84
  20,   20,   21,   86,   85
** ... 1004 like lines cut
*Nset, nset=Set-1, generate
    1,  1105,     1
*Elset, elset=Set-1, generate
    1,  1024,     1
** Section: Section-1
*Solid Section, elset=Set-1, material=Material-1
,
*End Part
**  
**
** ASSEMBLY
**
*Assembly, name=Assembly
**  
*Instance, name=Part-1-1, part=Part-1
*End Instance
**  
*Nset, nset=Set-1, instance=Part-1-1, generate
  521,  1041,    65
*Elset, elset=Set-1, instance=Part-1-1, generate
 513,  961,   64
*Nset, nset=Set-2, instance=Part-1-1, generate
   1,  521,   65
*Elset, elset=Set-2, instance=Part-1-1, generate
   1,  449,   64
*Nset, nset=Set-3, instance=Part-1-1
 521,
*Elset, elset=_Surf-1_S2, internal, instance=Part-1-1, generate
  576,  1024,    64
*Surface, type=ELEMENT, name=Surf-1
_Surf-1_S2, S2
*Elset, elset=_Surf-2_S2, internal, instance=Part-1-1, generate
  64,  512,   64
*Surface, type=ELEMENT, name=Surf-2
_Surf-2_S2, S2
*End Assembly
** 
** MATERIALS
** 
*Material, name=Material-1
*Elastic
1000., 0.3
** 
** BOUNDARY CONDITIONS
** 
** Name: BC-1 Type: Displacement/Rotation
*Boundary
Set-1, 1, 1
Set-1, 6, 6
** Name: BC-2 Type: Displacement/Rotation
*Boundary
Set-2, 1, 1
Set-2, 6, 6
** Name: BC-3 Type: Displacement/Rotation
*Boundary
Set-3, 1, 1
Set-3, 2, 2
Set-3, 6, 6
** ----------------------------------------------------------------
** 
** STEP: LoadingStep
** 
*Step, name=LoadingStep
*Static
1., 1., 1e-05, 1.
** 
** LOADS
** 
** Name: Load-1   Type: Surface traction Using Field: Parapolic shear
*Dload, op=NEW
Part-1-1.576, TRVEC2, 370.547, 0., -1., 0.
Part-1-1.640, TRVEC2, 358.922, 0., -1., 0.
Part-1-1.704, TRVEC2, 335.672, 0., -1., 0.
Part-1-1.768, TRVEC2, 300.797, 0., -1., 0.
Part-1-1.832, TRVEC2, 254.297, 0., -1., 0.
Part-1-1.896, TRVEC2, 196.172, 0., -1., 0.
Part-1-1.960, TRVEC2, 126.422, 0., -1., 0.
Part-1-1.1024, TRVEC2, 45.0469, 0., -1., 0.
** Name: Load-2   Type: Surface traction Using Field: Parapolic shear
*Dload, op=NEW
Part-1-1.64, TRSHR2, 45.0469, 0., -1., 0.
Part-1-1.128, TRSHR2, 126.422, 0., -1., 0.
Part-1-1.192, TRSHR2, 196.172, 0., -1., 0.
Part-1-1.256, TRSHR2, 254.297, 0., -1., 0.
Part-1-1.320, TRSHR2, 300.797, 0., -1., 0.
Part-1-1.384, TRSHR2, 335.672, 0., -1., 0.
Part-1-1.448, TRSHR2, 358.922, 0., -1., 0.
Part-1-1.512, TRSHR2, 370.547, 0., -1., 0.
** 
** OUTPUT REQUESTS
** 
*Restart, write, frequency=0
** 
** FIELD OUTPUT: F-Output-1
** 
*Output, field, variable=PRESELECT
** 
** HISTORY OUTPUT: H-Output-1
** 
*Output, history, variable=PRESELECT
*End Step
